// Generated for: spectre
// Generated on: May 21 04:23:33 2016
// Design library name: ShiftReg
// Design cell name: 8-bit
// Design view name: extracted
simulator lang=spectre
global 0
include "/usr/Cadence/tools/dfII/samples/artist/ahdlLib/quantity.spectre"
include "/usr/ee424/ami06P.m"
include "/usr/ee424/ami06N.m"

// Library name: ShiftReg
// Cell name: 8-bit
// View name: extracted
\+1966 (_23 _147) capacitor c=1.35594e-15 m=1
\+1960 (_23 _140) capacitor c=1.674e-15 m=1
\+1954 (_23 _132) capacitor c=6.6123e-16 m=1
\+1953 (_23 _131) capacitor c=1.35594e-15 m=1
\+1945 (_23 _122) capacitor c=4.6872e-16 m=1
\+1941 (_23 _117) capacitor c=1.35594e-15 m=1
\+1936 (_23 _111) capacitor c=2.77884e-15 m=1
\+1932 (_23 _106) capacitor c=6.6123e-16 m=1
\+1925 (_23 _97) capacitor c=5.3568e-16 m=1
\+1924 (_23 _96) capacitor c=2.77884e-15 m=1
\+1921 (_23 _93) capacitor c=4.6872e-16 m=1
\+1918 (_23 _88) capacitor c=6.6123e-16 m=1
\+1916 (_23 _85) capacitor c=1.07136e-15 m=1
\+1913 (_23 _82) capacitor c=5.3568e-16 m=1
\+1909 (_23 _78) capacitor c=4.6872e-16 m=1
\+1900 (_23 _66) capacitor c=2.77884e-15 m=1
\+1897 (_23 _63) capacitor c=4.6872e-16 m=1
\+1894 (_23 _58) capacitor c=6.6123e-16 m=1
\+1893 (_23 _57) capacitor c=1.35594e-15 m=1
\+1892 (_23 _55) capacitor c=1.07136e-15 m=1
\+1887 (_23 _50) capacitor c=1.674e-15 m=1
\+1881 (_23 _41) capacitor c=1.35594e-15 m=1
\+1877 (_23 _36) capacitor c=5.3568e-16 m=1
\+1875 (_23 _34) capacitor c=1.674e-15 m=1
\+1873 (_23 _32) capacitor c=4.6872e-16 m=1
\+1872 (_23 _30) capacitor c=6.6123e-16 m=1
\+1870 (_23 _27) capacitor c=6.6123e-16 m=1
\+1869 (_23 _24) capacitor c=6.6123e-16 m=1
\+1868 (S2 _23) capacitor c=9.3744e-15 m=1
\+1867 (S1 _23) capacitor c=5.83724e-14 m=1
\+1860 (X3 _23) capacitor c=6.0264e-16 m=1
\+1813 (vdd! _85) capacitor c=6.696e-16 m=1
\+1761 (vdd! X3) capacitor c=1.3392e-16 m=1
\+1754 (RESET _23) capacitor c=1.13162e-14 m=1
\+1750 (_142 _143) capacitor c=4.434e-16 m=1
\+1744 (_138 _139) capacitor c=2.7e-16 m=1
\+1743 (_136 _137) capacitor c=2.7e-16 m=1
\+1742 (_135 _139) capacitor c=2.7e-16 m=1
\+1741 (_134 _135) capacitor c=2.7e-16 m=1
\+1740 (_132 _133) capacitor c=2.7e-16 m=1
\+1737 (_126 _127) capacitor c=4.434e-16 m=1
\+1731 (_122 _123) capacitor c=2.7e-16 m=1
\+1730 (_120 _121) capacitor c=2.7e-16 m=1
\+1729 (_119 _123) capacitor c=2.7e-16 m=1
\+1728 (_118 _119) capacitor c=2.7e-16 m=1
\+1719 (_108 _109) capacitor c=2.7e-16 m=1
\+1718 (_106 _107) capacitor c=2.7e-16 m=1
\+1717 (_105 _136) capacitor c=2.7e-16 m=1
\+1716 (_104 _109) capacitor c=2.7e-16 m=1
\+1715 (_103 _104) capacitor c=2.7e-16 m=1
\+1706 (_93 _94) capacitor c=2.7e-16 m=1
\+1705 (_91 _92) capacitor c=2.7e-16 m=1
\+1704 (_90 _120) capacitor c=2.7e-16 m=1
\+1703 (_89 _94) capacitor c=2.7e-16 m=1
\+1702 (_88 _89) capacitor c=2.7e-16 m=1
\+1699 (_82 _83) capacitor c=4.434e-16 m=1
\+1693 (_78 _79) capacitor c=2.7e-16 m=1
\+1692 (_76 _77) capacitor c=2.7e-16 m=1
\+1691 (_75 _106) capacitor c=2.7e-16 m=1
\+1690 (_74 _79) capacitor c=2.7e-16 m=1
\+1689 (_73 _74) capacitor c=2.7e-16 m=1
\+1680 (_63 _64) capacitor c=2.7e-16 m=1
\+1679 (_61 _62) capacitor c=2.7e-16 m=1
\+1678 (_60 _91) capacitor c=2.7e-16 m=1
\+1677 (_59 _64) capacitor c=2.7e-16 m=1
\+1676 (_58 _59) capacitor c=2.7e-16 m=1
\+1667 (_48 _49) capacitor c=2.7e-16 m=1
\+1666 (_46 _47) capacitor c=2.7e-16 m=1
\+1665 (_45 _76) capacitor c=2.7e-16 m=1
\+1664 (_44 _49) capacitor c=2.7e-16 m=1
\+1663 (_43 _44) capacitor c=2.7e-16 m=1
\+1662 (_42 _46) capacitor c=2.7e-16 m=1
\+1653 (_32 _33) capacitor c=2.7e-16 m=1
\+1652 (_30 _31) capacitor c=2.7e-16 m=1
\+1651 (_29 _61) capacitor c=2.7e-16 m=1
\+1650 (_28 _33) capacitor c=2.7e-16 m=1
\+1649 (_27 _28) capacitor c=2.7e-16 m=1
\+1648 (_25 _30) capacitor c=2.7e-16 m=1
\+1647 (_24 _25) capacitor c=2.7e-16 m=1
\+1641 (_23 _142) capacitor c=1.6776e-15 m=1
\+1638 (_23 _139) capacitor c=5.7258e-16 m=1
\+1637 (_23 _138) capacitor c=7.4316e-16 m=1
\+1635 (_23 _136) capacitor c=5.7258e-16 m=1
\+1631 (_23 _132) capacitor c=5.7258e-16 m=1
\+1624 (_23 _125) capacitor c=3.62436e-15 m=1
\+1622 (_23 _123) capacitor c=5.7258e-16 m=1
\+1620 (_23 _121) capacitor c=3.39408e-15 m=1
\+1617 (_23 _118) capacitor c=5.7258e-16 m=1
\+1612 (_23 _113) capacitor c=2.1675e-15 m=1
\+1607 (_23 _108) capacitor c=7.4316e-16 m=1
\+1605 (_23 _106) capacitor c=5.7258e-16 m=1
\+1604 (_23 _105) capacitor c=3.35352e-15 m=1
\+1602 (_23 _103) capacitor c=5.7258e-16 m=1
\+1601 (_23 _102) capacitor c=1.42728e-15 m=1
\+1596 (_23 _97) capacitor c=1.6776e-15 m=1
\+1595 (_23 _96) capacitor c=3.62436e-15 m=1
\+1592 (_23 _93) capacitor c=7.4316e-16 m=1
\+1589 (_23 _90) capacitor c=3.35352e-15 m=1
\+1587 (_23 _88) capacitor c=5.7258e-16 m=1
\+1586 (_23 _87) capacitor c=1.42728e-15 m=1
\+1581 (_23 _82) capacitor c=1.6776e-15 m=1
\+1580 (_23 _81) capacitor c=3.62436e-15 m=1
\+1578 (_23 _79) capacitor c=5.7258e-16 m=1
\+1575 (_23 _76) capacitor c=5.7258e-16 m=1
\+1574 (_23 _75) capacitor c=3.35352e-15 m=1
\+1566 (_23 _67) capacitor c=1.6776e-15 m=1
\+1562 (_23 _63) capacitor c=7.4316e-16 m=1
\+1558 (_23 _59) capacitor c=2.7729e-15 m=1
\+1551 (_23 _52) capacitor c=1.6776e-15 m=1
\+1547 (_23 _48) capacitor c=7.4316e-16 m=1
\+1546 (_23 _47) capacitor c=3.39408e-15 m=1
\+1540 (_23 _41) capacitor c=1.42728e-15 m=1
\+1534 (_23 _35) capacitor c=3.62436e-15 m=1
\+1532 (_23 _33) capacitor c=5.7258e-16 m=1
\+1528 (_23 _29) capacitor c=3.35352e-15 m=1
\+1527 (_23 _28) capacitor c=2.7729e-15 m=1
\+1525 (_23 _26) capacitor c=3.47184e-15 m=1
\+1524 (_23 _25) capacitor c=1.48632e-15 m=1
\+1523 (_23 _24) capacitor c=5.7258e-16 m=1
\+1462 (X7 _26) capacitor c=2.7e-16 m=1
\+1451 (X6 _105) capacitor c=2.7e-16 m=1
\+1448 (X5 _90) capacitor c=2.7e-16 m=1
\+1445 (X4 _75) capacitor c=2.7e-16 m=1
\+1443 (X3 _85) capacitor c=2.7e-16 m=1
\+1442 (X3 _60) capacitor c=2.7e-16 m=1
\+1441 (X3 _23) capacitor c=1.83396e-15 m=1
\+1319 (vdd! X3) capacitor c=4.4736e-16 m=1
\+1317 (X2 _45) capacitor c=2.7e-16 m=1
\+1313 (X1 _29) capacitor c=2.7e-16 m=1
\+1310 (X0 _42) capacitor c=2.7e-16 m=1
\+1306 (D7 _27) capacitor c=2.7e-16 m=1
\+1305 (D7 _24) capacitor c=2.7e-16 m=1
\+1304 (D7 _23) capacitor c=1.48632e-15 m=1
\+1300 (D6 _43) capacitor c=2.7e-16 m=1
\+1299 (D6 _23) capacitor c=7.4316e-16 m=1
\+1296 (D5 _58) capacitor c=2.7e-16 m=1
\+1295 (D5 _23) capacitor c=7.4316e-16 m=1
\+1292 (D4 _73) capacitor c=2.7e-16 m=1
\+1291 (D4 _23) capacitor c=7.4316e-16 m=1
\+1288 (D3 _88) capacitor c=2.7e-16 m=1
\+1287 (D3 _23) capacitor c=7.4316e-16 m=1
\+1284 (D2 _103) capacitor c=2.7e-16 m=1
\+1283 (D2 _23) capacitor c=7.4316e-16 m=1
\+1280 (D1 _118) capacitor c=2.7e-16 m=1
\+1279 (D1 _23) capacitor c=7.4316e-16 m=1
\+1276 (D0 _134) capacitor c=2.7e-16 m=1
\+1275 (D0 _132) capacitor c=2.7e-16 m=1
\+1268 (RESET _144) capacitor c=2.217e-16 m=1
\+1267 (RESET _143) capacitor c=6.651e-16 m=1
\+1266 (RESET _140) capacitor c=2.217e-16 m=1
\+1263 (RESET _128) capacitor c=2.217e-16 m=1
\+1262 (RESET _127) capacitor c=6.651e-16 m=1
\+1261 (RESET _124) capacitor c=2.217e-16 m=1
\+1258 (RESET _114) capacitor c=2.217e-16 m=1
\+1257 (RESET _113) capacitor c=6.651e-16 m=1
\+1256 (RESET _110) capacitor c=2.217e-16 m=1
\+1253 (RESET _99) capacitor c=2.217e-16 m=1
\+1251 (RESET _95) capacitor c=2.217e-16 m=1
\+1248 (RESET _84) capacitor c=2.217e-16 m=1
\+1246 (RESET _80) capacitor c=2.217e-16 m=1
\+1243 (RESET _69) capacitor c=2.217e-16 m=1
\+1242 (RESET _68) capacitor c=6.651e-16 m=1
\+1241 (RESET _65) capacitor c=2.217e-16 m=1
\+1238 (RESET _54) capacitor c=2.217e-16 m=1
\+1236 (RESET _50) capacitor c=2.217e-16 m=1
\+1233 (RESET _38) capacitor c=2.217e-16 m=1
\+1232 (RESET _37) capacitor c=6.651e-16 m=1
\+1231 (RESET _34) capacitor c=2.217e-16 m=1
\+1230 (RESET _23) capacitor c=1.34208e-14 m=1
\+1228 (_138 _141) capacitor c=2.7192e-16 m=1
\+1227 (_138 _140) capacitor c=4.5696e-16 m=1
\+1226 (_138 _139) capacitor c=4.5696e-16 m=1
\+1225 (_135 _138) capacitor c=3.1776e-16 m=1
\+1223 (_133 _134) capacitor c=7.38945e-16 m=1
\+1222 (_132 _133) capacitor c=1.9506e-16 m=1
\+1221 (_122 _125) capacitor c=2.7192e-16 m=1
\+1220 (_122 _124) capacitor c=4.5696e-16 m=1
\+1219 (_122 _123) capacitor c=4.5696e-16 m=1
\+1218 (_119 _122) capacitor c=3.1776e-16 m=1
\+1217 (_108 _111) capacitor c=2.7192e-16 m=1
\+1216 (_108 _110) capacitor c=4.5696e-16 m=1
\+1215 (_108 _109) capacitor c=4.5696e-16 m=1
\+1214 (_105 _136) capacitor c=2.7192e-16 m=1
\+1213 (_105 _135) capacitor c=3.1776e-16 m=1
\+1212 (_105 _134) capacitor c=4.5696e-16 m=1
\+1211 (_105 _133) capacitor c=6.3552e-16 m=1
\+1210 (_105 _132) capacitor c=4.5696e-16 m=1
\+1199 (_105 _120) capacitor c=7.38945e-16 m=1
\+1197 (_105 _118) capacitor c=7.38945e-16 m=1
\+1186 (_105 _106) capacitor c=7.38945e-16 m=1
\+1185 (_104 _108) capacitor c=3.1776e-16 m=1
\+1183 (_93 _96) capacitor c=2.7192e-16 m=1
\+1182 (_93 _95) capacitor c=4.5696e-16 m=1
\+1181 (_93 _94) capacitor c=4.5696e-16 m=1
\+1168 (_90 _120) capacitor c=2.7192e-16 m=1
\+1167 (_90 _119) capacitor c=3.1776e-16 m=1
\+1166 (_90 _118) capacitor c=4.5696e-16 m=1
\+1140 (_89 _93) capacitor c=3.1776e-16 m=1
\+1138 (_78 _81) capacitor c=2.7192e-16 m=1
\+1137 (_78 _80) capacitor c=4.5696e-16 m=1
\+1136 (_78 _79) capacitor c=4.5696e-16 m=1
\+1135 (_75 _106) capacitor c=2.7192e-16 m=1
\+1134 (_75 _105) capacitor c=6.3552e-16 m=1
\+1133 (_75 _104) capacitor c=3.1776e-16 m=1
\+1132 (_75 _103) capacitor c=4.5696e-16 m=1
\+1121 (_75 _91) capacitor c=7.38945e-16 m=1
\+1118 (_75 _88) capacitor c=7.38945e-16 m=1
\+1107 (_75 _76) capacitor c=7.38945e-16 m=1
\+1106 (_74 _78) capacitor c=3.1776e-16 m=1
\+1104 (_63 _66) capacitor c=2.7192e-16 m=1
\+1103 (_63 _65) capacitor c=4.5696e-16 m=1
\+1102 (_63 _64) capacitor c=4.5696e-16 m=1
\+1089 (_60 _91) capacitor c=2.7192e-16 m=1
\+1087 (_60 _89) capacitor c=3.1776e-16 m=1
\+1086 (_60 _88) capacitor c=4.5696e-16 m=1
\+1060 (_59 _63) capacitor c=3.1776e-16 m=1
\+1058 (_48 _51) capacitor c=2.7192e-16 m=1
\+1057 (_48 _50) capacitor c=4.5696e-16 m=1
\+1056 (_48 _49) capacitor c=4.5696e-16 m=1
\+1055 (_45 _76) capacitor c=2.7192e-16 m=1
\+1054 (_45 _75) capacitor c=6.3552e-16 m=1
\+1053 (_45 _74) capacitor c=3.1776e-16 m=1
\+1052 (_45 _73) capacitor c=4.5696e-16 m=1
\+1041 (_45 _61) capacitor c=7.38945e-16 m=1
\+1038 (_45 _58) capacitor c=7.38945e-16 m=1
\+1030 (_45 _49) capacitor c=7.38945e-16 m=1
\+1027 (_45 _46) capacitor c=7.38945e-16 m=1
\+1026 (_44 _48) capacitor c=3.1776e-16 m=1
\+960 (_42 _60) capacitor c=3.1776e-16 m=1
\+948 (_42 _46) capacitor c=2.7192e-16 m=1
\+946 (_42 _44) capacitor c=9.5328e-16 m=1
\+945 (_42 _43) capacitor c=4.5696e-16 m=1
\+944 (_32 _35) capacitor c=2.7192e-16 m=1
\+943 (_32 _34) capacitor c=4.5696e-16 m=1
\+942 (_32 _33) capacitor c=4.5696e-16 m=1
\+929 (_29 _61) capacitor c=2.7192e-16 m=1
\+927 (_29 _59) capacitor c=3.1776e-16 m=1
\+926 (_29 _58) capacitor c=4.5696e-16 m=1
\+899 (_28 _32) capacitor c=3.1776e-16 m=1
\+857 (_26 _90) capacitor c=6.4038e-16 m=1
\+855 (_25 _30) capacitor c=4.1421e-16 m=1
\+852 (_25 _27) capacitor c=7.3605e-16 m=1
\+850 (_24 _25) capacitor c=2.0112e-16 m=1
\+849 (_23 _138) capacitor c=1.40573e-15 m=1
\+847 (_23 _122) capacitor c=1.40573e-15 m=1
\+846 (_23 _108) capacitor c=1.40573e-15 m=1
\+844 (_23 _93) capacitor c=1.40572e-15 m=1
\+843 (_23 _90) capacitor c=1.23393e-15 m=1
\+842 (_23 _78) capacitor c=1.40573e-15 m=1
\+841 (_23 _75) capacitor c=1.3119e-14 m=1
\+840 (_23 _63) capacitor c=1.40572e-15 m=1
\+839 (_23 _60) capacitor c=1.23393e-15 m=1
\+838 (_23 _48) capacitor c=1.40572e-15 m=1
\+835 (_23 _32) capacitor c=1.40572e-15 m=1
\+834 (_23 _29) capacitor c=1.23393e-15 m=1
\+832 (S2 _138) capacitor c=2.9067e-16 m=1
\+784 (S2 _63) capacitor c=4.1139e-16 m=1
\+783 (S2 _60) capacitor c=1.06764e-15 m=1
\+774 (S2 _48) capacitor c=4.1139e-16 m=1
\+763 (S2 _32) capacitor c=4.1139e-16 m=1
\+748 (S0 _105) capacitor c=2.9067e-16 m=1
\+695 (CLK _88) capacitor c=5.1252e-16 m=1
\+644 (CLK _32) capacitor c=3.7008e-16 m=1
\+622 (X3 _75) capacitor c=5.028e-16 m=1
\+621 (X3 _60) capacitor c=5.1252e-16 m=1
\+620 (X3 _42) capacitor c=5.028e-16 m=1
\+619 (X3 S2) capacitor c=5.1252e-16 m=1
\+618 (X3 CLK) capacitor c=9.4086e-16 m=1
\+594 (D7 _27) capacitor c=2.7192e-16 m=1
\+593 (D7 _26) capacitor c=3.1776e-16 m=1
\+591 (D7 _24) capacitor c=1.8504e-16 m=1
\+590 (D7 _23) capacitor c=7.32953e-16 m=1
\+589 (D7 S1) capacitor c=2.87205e-16 m=1
\+588 (D6 _42) capacitor c=3.1776e-16 m=1
\+584 (D5 _29) capacitor c=3.1776e-16 m=1
\+581 (D4 _45) capacitor c=3.1776e-16 m=1
\+578 (D3 _60) capacitor c=3.1776e-16 m=1
\+575 (D2 _75) capacitor c=3.1776e-16 m=1
\+572 (D1 _90) capacitor c=3.1776e-16 m=1
\+569 (D0 _105) capacitor c=6.3552e-16 m=1
\+554 (S0 _128) capacitor c=1.7808e-16 m=1
\+551 (S0 _125) capacitor c=3.048e-16 m=1
\+550 (S0 _124) capacitor c=3.4932e-16 m=1
\+549 (S0 _123) capacitor c=3.18435e-16 m=1
\+548 (S0 _122) capacitor c=2.424e-16 m=1
\+546 (S0 _120) capacitor c=3.18435e-16 m=1
\+544 (S0 _118) capacitor c=3.18435e-16 m=1
\+541 (S0 _114) capacitor c=1.7808e-16 m=1
\+539 (S0 _112) capacitor c=2.1576e-16 m=1
\+536 (S0 _109) capacitor c=3.18435e-16 m=1
\+535 (S0 _108) capacitor c=2.424e-16 m=1
\+534 (S0 _107) capacitor c=3.0672e-16 m=1
\+533 (S0 _106) capacitor c=3.18435e-16 m=1
\+532 (S0 _105) capacitor c=2.58556e-14 m=1
\+530 (S0 _103) capacitor c=6.2925e-16 m=1
\+529 (S0 _102) capacitor c=2.424e-16 m=1
\+525 (S0 _97) capacitor c=2.1576e-16 m=1
\+522 (S0 _94) capacitor c=3.18435e-16 m=1
\+521 (S0 _93) capacitor c=2.424e-16 m=1
\+519 (S0 _91) capacitor c=3.18435e-16 m=1
\+517 (S0 _89) capacitor c=3.0672e-16 m=1
\+516 (S0 _88) capacitor c=3.18435e-16 m=1
\+514 (S0 _85) capacitor c=3.048e-16 m=1
\+513 (S0 _84) capacitor c=1.7808e-16 m=1
\+511 (S0 _82) capacitor c=2.1576e-16 m=1
\+509 (S0 _80) capacitor c=3.4932e-16 m=1
\+508 (S0 _79) capacitor c=3.18435e-16 m=1
\+505 (S0 _76) capacitor c=3.18435e-16 m=1
\+502 (S0 _73) capacitor c=6.2925e-16 m=1
\+499 (S0 _69) capacitor c=1.7808e-16 m=1
\+498 (S0 _68) capacitor c=3.048e-16 m=1
\+497 (S0 _67) capacitor c=2.1576e-16 m=1
\+496 (S0 _66) capacitor c=3.048e-16 m=1
\+494 (S0 _64) capacitor c=3.18435e-16 m=1
\+493 (S0 _63) capacitor c=2.424e-16 m=1
\+491 (S0 _61) capacitor c=3.18435e-16 m=1
\+490 (S0 _60) capacitor c=5.5692e-16 m=1
\+488 (S0 _58) capacitor c=3.18435e-16 m=1
\+487 (S0 _57) capacitor c=2.424e-16 m=1
\+481 (S0 _50) capacitor c=3.4932e-16 m=1
\+478 (S0 _47) capacitor c=3.0672e-16 m=1
\+477 (S0 _46) capacitor c=3.18435e-16 m=1
\+474 (S0 _43) capacitor c=6.2925e-16 m=1
\+473 (S0 _42) capacitor c=5.2308e-16 m=1
\+462 (S0 _30) capacitor c=4.6173e-16 m=1
\+459 (S0 _27) capacitor c=3.1935e-16 m=1
\+456 (S0 _24) capacitor c=5.3391e-16 m=1
\+455 (S0 _23) capacitor c=2.9129e-14 m=1
\+452 (CLK S0) capacitor c=7.1736e-16 m=1
\+451 (X6 S0) capacitor c=2.0964e-16 m=1
\+450 (X5 S0) capacitor c=2.0964e-16 m=1
\+449 (X4 S0) capacitor c=2.0964e-16 m=1
\+448 (X3 S0) capacitor c=2.0964e-16 m=1
\+446 (X2 S0) capacitor c=2.0964e-16 m=1
\+445 (X1 S0) capacitor c=2.0964e-16 m=1
\+443 (D7 S0) capacitor c=4.2624e-16 m=1
\+441 (D5 S0) capacitor c=1.5336e-16 m=1
\+439 (D3 S0) capacitor c=1.5336e-16 m=1
\+437 (D1 S0) capacitor c=1.5336e-16 m=1
\+436 (D0 _132) capacitor c=8.904e-17 m=1
\+435 (D0 _105) capacitor c=3.222e-16 m=1
\+428 (RESET S0) capacitor c=2.7972e-15 m=1
\+1912 (_23 _81) capacitor c=2.77884e-15 m=1
\+1911 (_23 _80) capacitor c=1.674e-15 m=1
\+1910 (_23 _79) capacitor c=6.6123e-16 m=1
\+1908 (_23 _76) capacitor c=6.6123e-16 m=1
\+1906 (_23 _73) capacitor c=6.6123e-16 m=1
\+1903 (_23 _69) capacitor c=9.7929e-16 m=1
\+1899 (_23 _65) capacitor c=1.674e-15 m=1
\+1896 (_23 _61) capacitor c=6.6123e-16 m=1
\+1891 (_23 _54) capacitor c=9.7929e-16 m=1
\+1886 (_23 _49) capacitor c=6.6123e-16 m=1
\+1884 (_23 _46) capacitor c=6.6123e-16 m=1
\+1882 (_23 _43) capacitor c=6.6123e-16 m=1
\+1879 (_23 _38) capacitor c=9.7929e-16 m=1
\+1876 (_23 _35) capacitor c=2.77884e-15 m=1
\+1874 (_23 _33) capacitor c=6.6123e-16 m=1
\+1758 (X1 _23) capacitor c=6.0264e-16 m=1
\+1701 (_86 _87) capacitor c=2.217e-16 m=1
\+1698 (_81 _86) capacitor c=2.7e-16 m=1
\+1695 (_80 _85) capacitor c=3.59175e-16 m=1
\+1694 (_78 _81) capacitor c=2.217e-16 m=1
\+1688 (_71 _72) capacitor c=2.217e-16 m=1
\+1686 (_67 _68) capacitor c=4.434e-16 m=1
\+1685 (_66 _71) capacitor c=2.7e-16 m=1
\+1682 (_65 _70) capacitor c=3.59175e-16 m=1
\+1681 (_63 _66) capacitor c=2.217e-16 m=1
\+1675 (_56 _57) capacitor c=2.217e-16 m=1
\+1673 (_52 _53) capacitor c=4.434e-16 m=1
\+1672 (_51 _56) capacitor c=2.7e-16 m=1
\+1669 (_50 _55) capacitor c=3.59175e-16 m=1
\+1668 (_48 _51) capacitor c=2.217e-16 m=1
\+1661 (_40 _41) capacitor c=2.217e-16 m=1
\+1659 (_36 _37) capacitor c=4.434e-16 m=1
\+1658 (_35 _40) capacitor c=2.7e-16 m=1
\+1655 (_34 _39) capacitor c=3.59175e-16 m=1
\+1654 (_32 _35) capacitor c=2.217e-16 m=1
\+1585 (_23 _86) capacitor c=1.23672e-15 m=1
\+1583 (_23 _84) capacitor c=1.1832e-16 m=1
\+1582 (_23 _83) capacitor c=2.1675e-15 m=1
\+1579 (_23 _80) capacitor c=2.32806e-15 m=1
\+1573 (_23 _74) capacitor c=2.7729e-15 m=1
\+1570 (_23 _71) capacitor c=1.23672e-15 m=1
\+1568 (_23 _69) capacitor c=1.1832e-16 m=1
\+1567 (_23 _68) capacitor c=2.1675e-15 m=1
\+1565 (_23 _66) capacitor c=3.62436e-15 m=1
\+1561 (_23 _62) capacitor c=3.39408e-15 m=1
\+1555 (_23 _56) capacitor c=1.23672e-15 m=1
\+1553 (_23 _54) capacitor c=1.1832e-16 m=1
\+1552 (_23 _53) capacitor c=2.1675e-15 m=1
\+1550 (_23 _51) capacitor c=3.62436e-15 m=1
\+1543 (_23 _44) capacitor c=2.7729e-15 m=1
\+1539 (_23 _40) capacitor c=1.23672e-15 m=1
\+1537 (_23 _38) capacitor c=1.1832e-16 m=1
\+1536 (_23 _37) capacitor c=2.1675e-15 m=1
\+1533 (_23 _34) capacitor c=2.32806e-15 m=1
\+1530 (_23 _31) capacitor c=3.39408e-15 m=1
\+1513 (S2 _74) capacitor c=5.4e-16 m=1
\+1511 (S2 _59) capacitor c=5.4e-16 m=1
\+1507 (S2 _28) capacitor c=5.4e-16 m=1
\+1488 (S1 _77) capacitor c=2.217e-16 m=1
\+1485 (S1 _74) capacitor c=2.7e-16 m=1
\+1483 (S1 _62) capacitor c=2.217e-16 m=1
\+1480 (S1 _59) capacitor c=2.7e-16 m=1
\+1478 (S1 _47) capacitor c=2.217e-16 m=1
\+1475 (S1 _44) capacitor c=2.7e-16 m=1
\+1472 (S1 _31) capacitor c=2.217e-16 m=1
\+1469 (S1 _28) capacitor c=2.7e-16 m=1
\+1456 (CLK _80) capacitor c=2.7e-16 m=1
\+1455 (CLK _65) capacitor c=2.7e-16 m=1
\+1454 (CLK _50) capacitor c=2.7e-16 m=1
\+1453 (CLK _34) capacitor c=2.7e-16 m=1
\+1312 (X1 _23) capacitor c=1.83396e-15 m=1
\+1250 (RESET _86) capacitor c=2.217e-16 m=1
\+1247 (RESET _83) capacitor c=6.651e-16 m=1
\+1245 (RESET _71) capacitor c=2.217e-16 m=1
\+1240 (RESET _56) capacitor c=2.217e-16 m=1
\+1237 (RESET _53) capacitor c=6.651e-16 m=1
\+1235 (RESET _40) capacitor c=2.217e-16 m=1
\+1021 (_42 _157) capacitor c=2.5515e-17 m=1
\+1020 (_42 _154) capacitor c=2.5515e-17 m=1
\+1019 (_42 _151) capacitor c=2.5515e-17 m=1
\+982 (_42 _87) capacitor c=6.91485e-16 m=1
\+981 (_42 _86) capacitor c=9.28665e-16 m=1
\+980 (_42 _85) capacitor c=8.11845e-16 m=1
\+979 (_42 _84) capacitor c=9.25485e-16 m=1
\+978 (_42 _83) capacitor c=6.9081e-16 m=1
\+977 (_42 _82) capacitor c=5.02125e-16 m=1
\+976 (_42 _81) capacitor c=7.506e-16 m=1
\+975 (_42 _80) capacitor c=1.36551e-15 m=1
\+974 (_42 _78) capacitor c=1.8504e-16 m=1
\+973 (_42 _77) capacitor c=5.4384e-16 m=1
\+971 (_42 _74) capacitor c=6.3552e-16 m=1
\+970 (_42 _72) capacitor c=6.91485e-16 m=1
\+969 (_42 _71) capacitor c=9.28665e-16 m=1
\+968 (_42 _70) capacitor c=8.11845e-16 m=1
\+967 (_42 _69) capacitor c=9.25485e-16 m=1
\+966 (_42 _68) capacitor c=6.9081e-16 m=1
\+965 (_42 _67) capacitor c=5.02125e-16 m=1
\+964 (_42 _66) capacitor c=7.506e-16 m=1
\+963 (_42 _65) capacitor c=1.36551e-15 m=1
\+962 (_42 _63) capacitor c=1.8504e-16 m=1
\+961 (_42 _62) capacitor c=5.4384e-16 m=1
\+959 (_42 _59) capacitor c=6.3552e-16 m=1
\+958 (_42 _57) capacitor c=6.91485e-16 m=1
\+957 (_42 _56) capacitor c=9.28665e-16 m=1
\+956 (_42 _55) capacitor c=8.11845e-16 m=1
\+955 (_42 _54) capacitor c=9.25485e-16 m=1
\+954 (_42 _53) capacitor c=6.9081e-16 m=1
\+953 (_42 _52) capacitor c=5.02125e-16 m=1
\+952 (_42 _51) capacitor c=7.506e-16 m=1
\+951 (_42 _50) capacitor c=1.36551e-15 m=1
\+950 (_42 _48) capacitor c=1.8504e-16 m=1
\+949 (_42 _47) capacitor c=5.4384e-16 m=1
\+947 (_42 _45) capacitor c=9.5328e-16 m=1
\+762 (S2 _29) capacitor c=1.06764e-15 m=1
\+753 (S1 _42) capacitor c=1.29797e-14 m=1
\+685 (CLK _77) capacitor c=6.6468e-16 m=1
\+671 (CLK _62) capacitor c=6.6468e-16 m=1
\+667 (CLK _58) capacitor c=5.1252e-16 m=1
\+663 (CLK _53) capacitor c=9.4254e-16 m=1
\+657 (CLK _47) capacitor c=6.6468e-16 m=1
\+648 (CLK _37) capacitor c=9.4254e-16 m=1
\+643 (CLK _29) capacitor c=1.01532e-15 m=1
\+639 (CLK S1) capacitor c=5.18112e-15 m=1
\+605 (X2 _42) capacitor c=5.028e-16 m=1
\+601 (X1 _42) capacitor c=5.028e-16 m=1
\+598 (X1 CLK) capacitor c=9.4086e-16 m=1
\+561 (RESET _42) capacitor c=2.22048e-15 m=1
\+1890 (_23 _53) capacitor c=1.07136e-15 m=1
\+1889 (_23 _52) capacitor c=5.3568e-16 m=1
\+1888 (_23 _51) capacitor c=2.77884e-15 m=1
\+1885 (_23 _48) capacitor c=4.6872e-16 m=1
\+1883 (_23 _44) capacitor c=1.40616e-15 m=1
\+1878 (_23 _37) capacitor c=1.07136e-15 m=1
\+1871 (_23 _28) capacitor c=1.40616e-15 m=1
\+1756 (X0 _23) capacitor c=6.0264e-16 m=1
\+1549 (_23 _50) capacitor c=2.32806e-15 m=1
\+781 (S2 _57) capacitor c=3.7008e-16 m=1
\+780 (S2 _55) capacitor c=3.0576e-16 m=1
\+779 (S2 _54) capacitor c=1.2072e-16 m=1
\+778 (S2 _53) capacitor c=2.4144e-16 m=1
\+777 (S2 _52) capacitor c=1.2072e-16 m=1
\+776 (S2 _51) capacitor c=8.826e-16 m=1
\+775 (S2 _50) capacitor c=9.0996e-16 m=1
\+772 (S2 _44) capacitor c=2.72592e-15 m=1
\+771 (S2 _42) capacitor c=5.58636e-15 m=1
\+770 (S2 _41) capacitor c=3.7008e-16 m=1
\+769 (S2 _39) capacitor c=3.0576e-16 m=1
\+768 (S2 _38) capacitor c=1.2072e-16 m=1
\+767 (S2 _37) capacitor c=2.4144e-16 m=1
\+766 (S2 _36) capacitor c=1.2072e-16 m=1
\+765 (S2 _35) capacitor c=8.826e-16 m=1
\+764 (S2 _34) capacitor c=9.0996e-16 m=1
\+599 (X1 S2) capacitor c=5.1252e-16 m=1
\+596 (X0 S2) capacitor c=5.1252e-16 m=1
\+558 (RESET S2) capacitor c=1.69008e-15 m=1
\+1880 (_23 _39) capacitor c=1.07136e-15 m=1
\+1674 (_55 _57) capacitor c=2.217e-16 m=1
\+1671 (_51 _55) capacitor c=2.217e-16 m=1
\+1670 (_51 _52) capacitor c=2.217e-16 m=1
\+1660 (_39 _41) capacitor c=2.217e-16 m=1
\+1657 (_35 _39) capacitor c=2.217e-16 m=1
\+1656 (_35 _36) capacitor c=2.217e-16 m=1
\+1556 (_23 _57) capacitor c=1.42728e-15 m=1
\+1554 (_23 _55) capacitor c=2.69085e-15 m=1
\+1538 (_23 _39) capacitor c=2.69085e-15 m=1
\+1535 (_23 _36) capacitor c=1.6776e-15 m=1
\+1314 (X1 _55) capacitor c=2.7e-16 m=1
\+1309 (X0 _39) capacitor c=2.7e-16 m=1
\+1308 (X0 _23) capacitor c=1.83396e-15 m=1
\+666 (CLK _57) capacitor c=5.832e-16 m=1
\+665 (CLK _55) capacitor c=1.95543e-15 m=1
\+664 (CLK _54) capacitor c=1.8504e-16 m=1
\+662 (CLK _52) capacitor c=4.5696e-16 m=1
\+661 (CLK _51) capacitor c=9.8076e-16 m=1
\+660 (CLK _50) capacitor c=6.8826e-16 m=1
\+659 (CLK _49) capacitor c=5.1252e-16 m=1
\+658 (CLK _48) capacitor c=7.0728e-16 m=1
\+656 (CLK _46) capacitor c=5.1252e-16 m=1
\+655 (CLK _45) capacitor c=1.3428e-15 m=1
\+654 (CLK _44) capacitor c=6.6468e-16 m=1
\+653 (CLK _43) capacitor c=5.1252e-16 m=1
\+651 (CLK _41) capacitor c=5.832e-16 m=1
\+650 (CLK _39) capacitor c=1.95543e-15 m=1
\+649 (CLK _38) capacitor c=1.8504e-16 m=1
\+647 (CLK _36) capacitor c=4.5696e-16 m=1
\+646 (CLK _35) capacitor c=9.8076e-16 m=1
\+645 (CLK _34) capacitor c=4.1634e-16 m=1
\+595 (X0 CLK) capacitor c=9.4086e-16 m=1
\+586 (D6 CLK) capacitor c=3.2748e-16 m=1
\+1917 (_23 _87) capacitor c=1.35594e-15 m=1
\+1915 (_23 _84) capacitor c=9.7929e-16 m=1
\+1914 (_23 _83) capacitor c=1.07136e-15 m=1
\+1907 (_23 _74) capacitor c=1.40616e-15 m=1
\+1905 (_23 _72) capacitor c=1.35594e-15 m=1
\+1902 (_23 _68) capacitor c=1.07136e-15 m=1
\+1901 (_23 _67) capacitor c=5.3568e-16 m=1
\+1895 (_23 _59) capacitor c=1.40616e-15 m=1
\+1760 (X2 _23) capacitor c=6.0264e-16 m=1
\+1564 (_23 _65) capacitor c=2.32806e-15 m=1
\+801 (S2 _87) capacitor c=3.7008e-16 m=1
\+800 (S2 _85) capacitor c=3.0576e-16 m=1
\+799 (S2 _84) capacitor c=1.2072e-16 m=1
\+798 (S2 _83) capacitor c=2.4144e-16 m=1
\+797 (S2 _82) capacitor c=1.2072e-16 m=1
\+796 (S2 _81) capacitor c=8.826e-16 m=1
\+795 (S2 _80) capacitor c=9.0996e-16 m=1
\+794 (S2 _78) capacitor c=4.1139e-16 m=1
\+792 (S2 _74) capacitor c=2.72592e-15 m=1
\+791 (S2 _72) capacitor c=3.7008e-16 m=1
\+790 (S2 _70) capacitor c=3.0576e-16 m=1
\+789 (S2 _69) capacitor c=1.2072e-16 m=1
\+788 (S2 _68) capacitor c=2.4144e-16 m=1
\+787 (S2 _67) capacitor c=1.2072e-16 m=1
\+786 (S2 _66) capacitor c=8.826e-16 m=1
\+785 (S2 _65) capacitor c=9.0996e-16 m=1
\+782 (S2 _59) capacitor c=2.72592e-15 m=1
\+760 (S2 _23) capacitor c=8.06092e-14 m=1
\+749 (S1 S2) capacitor c=1.29528e-15 m=1
\+640 (CLK S2) capacitor c=3.88584e-15 m=1
\+604 (X2 S2) capacitor c=5.1252e-16 m=1
\+1904 (_23 _70) capacitor c=1.07136e-15 m=1
\+1700 (_85 _87) capacitor c=2.217e-16 m=1
\+1697 (_81 _85) capacitor c=2.217e-16 m=1
\+1696 (_81 _82) capacitor c=2.217e-16 m=1
\+1687 (_70 _72) capacitor c=2.217e-16 m=1
\+1684 (_66 _70) capacitor c=2.217e-16 m=1
\+1683 (_66 _67) capacitor c=2.217e-16 m=1
\+1584 (_23 _85) capacitor c=2.69085e-15 m=1
\+1571 (_23 _72) capacitor c=1.42728e-15 m=1
\+1569 (_23 _70) capacitor c=2.69085e-15 m=1
\+1318 (X2 _70) capacitor c=2.7e-16 m=1
\+1316 (X2 _23) capacitor c=1.83396e-15 m=1
\+1244 (RESET _70) capacitor c=5.1585e-16 m=1
\+694 (CLK _87) capacitor c=5.832e-16 m=1
\+693 (CLK _85) capacitor c=1.95543e-15 m=1
\+692 (CLK _84) capacitor c=1.8504e-16 m=1
\+691 (CLK _83) capacitor c=9.4254e-16 m=1
\+690 (CLK _82) capacitor c=4.5696e-16 m=1
\+689 (CLK _81) capacitor c=9.8076e-16 m=1
\+688 (CLK _80) capacitor c=6.8826e-16 m=1
\+687 (CLK _79) capacitor c=5.1252e-16 m=1
\+686 (CLK _78) capacitor c=7.0728e-16 m=1
\+684 (CLK _76) capacitor c=5.1252e-16 m=1
\+683 (CLK _75) capacitor c=1.3428e-15 m=1
\+682 (CLK _74) capacitor c=6.6468e-16 m=1
\+681 (CLK _73) capacitor c=5.1252e-16 m=1
\+680 (CLK _72) capacitor c=5.832e-16 m=1
\+679 (CLK _70) capacitor c=1.95543e-15 m=1
\+678 (CLK _69) capacitor c=1.8504e-16 m=1
\+677 (CLK _68) capacitor c=9.4254e-16 m=1
\+676 (CLK _67) capacitor c=4.5696e-16 m=1
\+675 (CLK _66) capacitor c=9.8076e-16 m=1
\+674 (CLK _65) capacitor c=6.8826e-16 m=1
\+673 (CLK _64) capacitor c=5.1252e-16 m=1
\+672 (CLK _63) capacitor c=7.0728e-16 m=1
\+670 (CLK _61) capacitor c=5.1252e-16 m=1
\+669 (CLK _60) capacitor c=1.3428e-15 m=1
\+668 (CLK _59) capacitor c=6.6468e-16 m=1
\+641 (CLK _23) capacitor c=4.32101e-14 m=1
\+603 (X2 CLK) capacitor c=9.4086e-16 m=1
\+583 (D5 CLK) capacitor c=3.2748e-16 m=1
\+580 (D4 CLK) capacitor c=3.2748e-16 m=1
\+1814 (vdd! _87) capacitor c=1.3392e-16 m=1
\+1812 (vdd! _84) capacitor c=3.7665e-16 m=1
\+1811 (vdd! _83) capacitor c=2.6784e-16 m=1
\+1810 (vdd! _82) capacitor c=1.3392e-16 m=1
\+1809 (vdd! _81) capacitor c=2.6784e-16 m=1
\+1808 (vdd! _80) capacitor c=2.27664e-15 m=1
\+1806 (vdd! _78) capacitor c=1.3392e-16 m=1
\+1805 (vdd! _76) capacitor c=1.3392e-16 m=1
\+1803 (vdd! _72) capacitor c=1.3392e-16 m=1
\+1802 (vdd! _70) capacitor c=6.696e-16 m=1
\+1801 (vdd! _69) capacitor c=3.7665e-16 m=1
\+1800 (vdd! _68) capacitor c=2.6784e-16 m=1
\+1799 (vdd! _67) capacitor c=1.3392e-16 m=1
\+1798 (vdd! _66) capacitor c=2.6784e-16 m=1
\+1797 (vdd! _65) capacitor c=2.27664e-15 m=1
\+1795 (vdd! _63) capacitor c=1.3392e-16 m=1
\+1792 (vdd! _57) capacitor c=1.3392e-16 m=1
\+1791 (vdd! _55) capacitor c=6.696e-16 m=1
\+1790 (vdd! _54) capacitor c=3.7665e-16 m=1
\+1789 (vdd! _53) capacitor c=2.6784e-16 m=1
\+1788 (vdd! _52) capacitor c=1.3392e-16 m=1
\+1787 (vdd! _51) capacitor c=2.6784e-16 m=1
\+1786 (vdd! _50) capacitor c=2.27664e-15 m=1
\+1785 (vdd! _49) capacitor c=1.3392e-16 m=1
\+1784 (vdd! _48) capacitor c=1.3392e-16 m=1
\+1782 (vdd! _43) capacitor c=1.3392e-16 m=1
\+1781 (vdd! _41) capacitor c=1.3392e-16 m=1
\+1780 (vdd! _39) capacitor c=6.696e-16 m=1
\+1779 (vdd! _38) capacitor c=3.7665e-16 m=1
\+1778 (vdd! _37) capacitor c=2.6784e-16 m=1
\+1777 (vdd! _36) capacitor c=1.3392e-16 m=1
\+1776 (vdd! _35) capacitor c=2.6784e-16 m=1
\+1775 (vdd! _34) capacitor c=2.27664e-15 m=1
\+1774 (vdd! _33) capacitor c=1.3392e-16 m=1
\+1773 (vdd! _32) capacitor c=1.3392e-16 m=1
\+1759 (X2 vdd!) capacitor c=1.3392e-16 m=1
\+1757 (X1 vdd!) capacitor c=1.3392e-16 m=1
\+1755 (X0 vdd!) capacitor c=1.3392e-16 m=1
\+1514 (S2 _79) capacitor c=2.217e-16 m=1
\+1512 (S2 _64) capacitor c=2.217e-16 m=1
\+1510 (S2 _49) capacitor c=2.217e-16 m=1
\+1509 (S2 _44) capacitor c=5.4e-16 m=1
\+1508 (S2 _33) capacitor c=2.217e-16 m=1
\+1487 (S1 _76) capacitor c=2.217e-16 m=1
\+1484 (S1 _73) capacitor c=2.217e-16 m=1
\+1482 (S1 _61) capacitor c=2.217e-16 m=1
\+1479 (S1 _58) capacitor c=2.217e-16 m=1
\+1477 (S1 _46) capacitor c=2.217e-16 m=1
\+1476 (S1 _45) capacitor c=2.7e-16 m=1
\+1474 (S1 _43) capacitor c=2.217e-16 m=1
\+1473 (S1 _42) capacitor c=2.7e-16 m=1
\+1471 (S1 _30) capacitor c=2.217e-16 m=1
\+1470 (S1 _29) capacitor c=2.7e-16 m=1
\+1468 (S1 _27) capacitor c=2.217e-16 m=1
\+1467 (S1 _25) capacitor c=2.7e-16 m=1
\+1464 (S0 _24) capacitor c=2.217e-16 m=1
\+1384 (vdd! _87) capacitor c=4.4736e-16 m=1
\+1383 (vdd! _85) capacitor c=1.47258e-15 m=1
\+1382 (vdd! _84) capacitor c=1.71e-16 m=1
\+1381 (vdd! _83) capacitor c=4.0482e-16 m=1
\+1380 (vdd! _82) capacitor c=4.0482e-16 m=1
\+1379 (vdd! _81) capacitor c=4.0482e-16 m=1
\+1378 (vdd! _80) capacitor c=5.65062e-15 m=1
\+1377 (vdd! _79) capacitor c=2.9298e-16 m=1
\+1376 (vdd! _78) capacitor c=4.4736e-16 m=1
\+1375 (vdd! _77) capacitor c=8.9472e-16 m=1
\+1374 (vdd! _76) capacitor c=2.9298e-16 m=1
\+1372 (vdd! _74) capacitor c=7.764e-16 m=1
\+1371 (vdd! _73) capacitor c=2.9298e-16 m=1
\+1370 (vdd! _72) capacitor c=4.4736e-16 m=1
\+1369 (vdd! _70) capacitor c=1.47258e-15 m=1
\+1368 (vdd! _69) capacitor c=1.71e-16 m=1
\+1367 (vdd! _68) capacitor c=4.0482e-16 m=1
\+1366 (vdd! _67) capacitor c=4.0482e-16 m=1
\+1365 (vdd! _66) capacitor c=4.0482e-16 m=1
\+1364 (vdd! _65) capacitor c=5.65062e-15 m=1
\+1363 (vdd! _64) capacitor c=2.9298e-16 m=1
\+1362 (vdd! _63) capacitor c=4.4736e-16 m=1