simulator lang=spectre
vdd (vdd! 0) vsource dc=3
v1 (R 0) vsource type=pwl wave=[0 3 5n 3 5.05n 0]
V2 (CLK 0) vsource type=pulse val0=0 val1=3 delay=10n rise=0.05n fall=0.05n width=10n period=20n
