simulator lang=spectre
vdd (vdd! 0) vsource dc=3
V1 (R 0) vsource type pulse val0=3 val1=0 delay=0 rise=0.05n fall=0.05n width=5n period=250n
V2 (CLK 0) vsource type=pulse val0=0 val1=3 delay=10n rise=0.05n fall=0.05n width=10n period=20n
