simulator lang=spectre
vdd (vdd! 0) vsource dc=3
V1 (D 0) vsource type=pulse val0=0 val1=3 delay=0 rise=0.05n fall=0.05n width=5n period=10n
V2 (CLK 0) vsource type=pulse val0=0 val1=3 delay=0 rise=0.005n fall=0.005n width=0.05n period=0.1n
