simulator lang=spectre
Vdd (vdd! 0) vsource dc=3
clock (CLK 0) vsource dc=3
s0 (S0 0) vsource dc=3
s1 (S1 0) vsource dc=3
s2 (S2 0) vsource dc=3
d0 (D0 0) vsource dc=3
d1 (D1 0) vsource dc=3
d2 (D2 0) vsource dc=3
d3 (D3 0) vsource dc=3
d4 (D4 0) vsource dc=3
d5 (D5 0) vsource dc=3
d6 (D6 0) vsource dc=3
d7 (D7 0) vsource dc=3
reset (RESET 0) vsource dc=3

